&clm_inparm 
 finidat = 'SPRUCE-finalspinup-peatland-carbon-initial.nc'
 hist_fincl2 = 'TLAI','TOTVEGC','FROOTC','LEAFC','FPSN','FPG','GPP','NPP','GR','MR','QVEGE','QVEGT','BTRAN','LEAF_MR','LIVESTEM_MR','AR','CPOOL_LEAF_GR','CPOOL_LEAF_STORAGE_GR','TRANSFER_LEAF_GR','CPOOL_LIVESTEM_GR','CPOOL_LIVESTEM_STORAGE_GR','TRANSFER_LIVESTEM_GR'
 hist_dov2xy = .true., .false.
 hist_mfilt  = 365,365
 hist_nhtfrq = -24,-24
 fsurdat = '/home/u9x/ccsm_inputdata/lnd/clm2/surfdata_map/surfdata_2x1pt_hydro_ch4_US-SPR_I20TRCLM45CN_simyr1850.nc'
 fpftdyn = '/home/u9x/ccsm_inputdata/lnd/clm2/surfdata_map/surfdata.pftdyn_2x1pt_hydro_ch4_US-SPR_I20TRCLM45CN.nc'
 fpftcon = 'clmmicrobe.para.nc'
 stream_fldfilename_ndep = '/home/u9x/ccsm_inputdata/lnd/clm2/ndepdata/fndep_clm_hist_simyr1849-2006_1.9x2.5_c100428.nc'
 spinup_state = 0
/ 
