&clm_inparm
 albice = 0.60,0.40
 co2_ppmv = 284.7
 co2_type = 'constant'
 create_crop_landunit = .false.
 dtime = 1800
 fatmlndfrc = '/home/u9x/ccsm_inputdata/share/domains/domain.clm/domain.lnd.2x1pt_US-SPR_navy.nc'
 finidat = ' '
 fpftcon = 'clmmicrobe.para.nc'
 fsnowaging = '/home/u9x/ccsm_inputdata/lnd/clm2/snicardata/snicar_drdt_bst_fit_60_c070416.nc'
 fsnowoptics = '/home/u9x/ccsm_inputdata/lnd/clm2/snicardata/snicar_optics_5bnd_c090915.nc'
 fsurdat = '/home/u9x/ccsm_inputdata/lnd/clm2/surfdata_map/surfdata_2x1pt_hydro_ch4_US-SPR_I20TRCLM45CN_simyr1850.nc'
 hist_dov2xy = .true.,.false.
 hist_fincl2 = 'TLAI', 'TOTVEGC', 'FROOTC', 'LEAFC', 'FPSN', 'FPG', 'GPP', 'NPP',
         'GR', 'MR', 'QVEGE', 'QVEGT', 'BTRAN', 'LEAF_MR', 'LIVESTEM_MR', 'AR',
         'CPOOL_LEAF_GR', 'CPOOL_LEAF_STORAGE_GR', 'TRANSFER_LEAF_GR', 'CPOOL_LIVESTEM_GR', 'CPOOL_LIVESTEM_STORAGE_GR', 'TRANSFER_LIVESTEM_GR'
 hist_mfilt = 365,365
 hist_nhtfrq = -24,-24
 maxpatch_glcmec = 0
 more_vertlayers = .false.
 nsegspc = 20
 spinup_state = 0
 urban_hac = 'ON'
 urban_traffic = .false.
/
&ndepdyn_nml
 ndepmapalgo = 'bilinear'
 stream_fldfilename_ndep = '/home/u9x/ccsm_inputdata/lnd/clm2/ndepdata/fndep_clm_hist_simyr1849-2006_1.9x2.5_c100428.nc'
 stream_year_first_ndep = 1850
 stream_year_last_ndep = 1850
/
&popd_streams
 popdensmapalgo = 'bilinear'
 stream_fldfilename_popdens = '/home/u9x/ccsm_inputdata/lnd/clm2/firedata/clmforc.Li_2012_hdm_0.5x0.5_AVHRR_simyr1850-2010_c130401.nc'
 stream_year_first_popdens = 1850
 stream_year_last_popdens = 1850
/
&light_streams
 lightngmapalgo = 'bilinear'
 stream_fldfilename_lightng = '/home/u9x/ccsm_inputdata/atm/datm7/NASA_LIS/clmforc.Li_2012_climo1995-2011.T62.lnfm_c130327.nc'
 stream_year_first_lightng = 0001
 stream_year_last_lightng = 0001
/
&clm_hydrology1_inparm
/
&clm_soilhydrology_inparm
/
&microbepar_in
/
#!--------------------------------------------------------------------------------------------------------------------------
#! lnd_in:: Comment:
#! This namelist was created using the following command-line:
#!     /home/u9x/clm45microbe_spruce_2015Jan15/models/lnd/clm/bld/CLM build-namelist -infile /home/u9x/clm45microbe_spruce_2015Jan15/scripts/SPRUCE-spinup_US-SPR_I1850CLM45CN/Buildconf/clmconf/cesm_namelist -csmdata /home/u9x/ccsm_inputdata -inputdata /home/u9x/clm45microbe_spruce_2015Jan15/scripts/SPRUCE-spinup_US-SPR_I1850CLM45CN/Buildconf/clm.input_data_list -ignore_ic_year -namelist &clm_inparm start_ymd = 00010101  / -use_case 1850_control -res 2x1pt_US-SPR -clm_usr_name 2x1pt_US-SPR -clm_start_type cold -l_ncpl 48 -lnd_frac /home/u9x/ccsm_inputdata/share/domains/domain.clm/domain.lnd.2x1pt_US-SPR_navy.nc -glc_nec 0 -co2_ppmv 284.7 -co2_type constant -config /home/u9x/clm45microbe_spruce_2015Jan15/scripts/SPRUCE-spinup_US-SPR_I1850CLM45CN/Buildconf/clmconf/config_cache.xml -mask navy -bgc_spinup on
#! For help on options use: /home/u9x/clm45microbe_spruce_2015Jan15/models/lnd/clm/bld/CLM build-namelist -help
#!--------------------------------------------------------------------------------------------------------------------------
